*Heading
** Job name: CWSand_01 Model name: Sandwich
** Generated by: Abaqus/CAE 6.9-EFR
*Preprint, echo=NO, model=NO, history=NO, contact=NO
**
** PARTS
**
*Part, name=Bottom-Plate
*Node
      1,         305.,           0.,           0.
      2,   295.161285,           0.,           0.
      3,   285.322571,           0.,           0.
      4,   275.483856,           0.,           0.
      5,   265.645172,           0.,           0.
      6,   255.806458,           0.,           0.
      7,   245.967743,           0.,           0.
      8,   236.129028,           0.,           0.
      9,   226.290329,           0.,           0.
     10,   216.451614,           0.,           0.
     11,     206.6129,           0.,           0.
     12,     196.7742,           0.,           0.
     13,   186.935486,           0.,           0.
     14,   177.096771,           0.,           0.
     15,   167.258072,           0.,           0.
     16,   157.419357,           0.,           0.
     17,   147.580643,           0.,           0.
     18,   137.741928,           0.,           0.
     19,   127.903229,           0.,           0.
     20,   118.064514,           0.,           0.
** ... 6124 like lines cut
*Element, type=C3D8R
   1,   33,   34,    2,    1, 1057, 1058, 1026, 1025
   2,   34,   35,    3,    2, 1058, 1059, 1027, 1026
   3,   35,   36,    4,    3, 1059, 1060, 1028, 1027
   4,   36,   37,    5,    4, 1060, 1061, 1029, 1028
   5,   37,   38,    6,    5, 1061, 1062, 1030, 1029
   6,   38,   39,    7,    6, 1062, 1063, 1031, 1030
   7,   39,   40,    8,    7, 1063, 1064, 1032, 1031
   8,   40,   41,    9,    8, 1064, 1065, 1033, 1032
   9,   41,   42,   10,    9, 1065, 1066, 1034, 1033
  10,   42,   43,   11,   10, 1066, 1067, 1035, 1034
  11,   43,   44,   12,   11, 1067, 1068, 1036, 1035
  12,   44,   45,   13,   12, 1068, 1069, 1037, 1036
  13,   45,   46,   14,   13, 1069, 1070, 1038, 1037
  14,   46,   47,   15,   14, 1070, 1071, 1039, 1038
  15,   47,   48,   16,   15, 1071, 1072, 1040, 1039
  16,   48,   49,   17,   16, 1072, 1073, 1041, 1040
  17,   49,   50,   18,   17, 1073, 1074, 1042, 1041
  18,   50,   51,   19,   18, 1074, 1075, 1043, 1042
  19,   51,   52,   20,   19, 1075, 1076, 1044, 1043
  20,   52,   53,   21,   20, 1076, 1077, 1045, 1044
** ... 4785 like lines cut
*Nset, nset=ALL, generate
    1,  6144,     1
*Elset, elset=ALL, generate
    1,  4805,     1
*Nset, nset=Top-Surf, generate
 5121,  6144,     1
*Elset, elset=Top-Surf, generate
 3845,  4805,     1
*Nset, nset=Bottom-Surf, generate
    1,  1024,     1
*Elset, elset=Bottom-Surf, generate
   1,  961,    1
*Nset, nset=x0, generate
   32,  6144,    32
*Nset, nset=xL, generate
    1,  6113,    32
*Nset, nset=y0
    1,    2,    3,    4,    5,    6,    7,    8,    9,   10,   11,   12,   13,   14,   15,   16
   17,   18,   19,   20,   21,   22,   23,   24,   25,   26,   27,   28,   29,   30,   31,   32
 1025, 1026, 1027, 1028, 1029, 1030, 1031, 1032, 1033, 1034, 1035, 1036, 1037, 1038, 1039, 1040
 1041, 1042, 1043, 1044, 1045, 1046, 1047, 1048, 1049, 1050, 1051, 1052, 1053, 1054, 1055, 1056
 2049, 2050, 2051, 2052, 2053, 2054, 2055, 2056, 2057, 2058, 2059, 2060, 2061, 2062, 2063, 2064
 2065, 2066, 2067, 2068, 2069, 2070, 2071, 2072, 2073, 2074, 2075, 2076, 2077, 2078, 2079, 2080
 3073, 3074, 3075, 3076, 3077, 3078, 3079, 3080, 3081, 3082, 3083, 3084, 3085, 3086, 3087, 3088
 3089, 3090, 3091, 3092, 3093, 3094, 3095, 3096, 3097, 3098, 3099, 3100, 3101, 3102, 3103, 3104
 4097, 4098, 4099, 4100, 4101, 4102, 4103, 4104, 4105, 4106, 4107, 4108, 4109, 4110, 4111, 4112
 4113, 4114, 4115, 4116, 4117, 4118, 4119, 4120, 4121, 4122, 4123, 4124, 4125, 4126, 4127, 4128
 5121, 5122, 5123, 5124, 5125, 5126, 5127, 5128, 5129, 5130, 5131, 5132, 5133, 5134, 5135, 5136
 5137, 5138, 5139, 5140, 5141, 5142, 5143, 5144, 5145, 5146, 5147, 5148, 5149, 5150, 5151, 5152
*Nset, nset=yL
  993,  994,  995,  996,  997,  998,  999, 1000, 1001, 1002, 1003, 1004, 1005, 1006, 1007, 1008
 1009, 1010, 1011, 1012, 1013, 1014, 1015, 1016, 1017, 1018, 1019, 1020, 1021, 1022, 1023, 1024
 2017, 2018, 2019, 2020, 2021, 2022, 2023, 2024, 2025, 2026, 2027, 2028, 2029, 2030, 2031, 2032
 2033, 2034, 2035, 2036, 2037, 2038, 2039, 2040, 2041, 2042, 2043, 2044, 2045, 2046, 2047, 2048
 3041, 3042, 3043, 3044, 3045, 3046, 3047, 3048, 3049, 3050, 3051, 3052, 3053, 3054, 3055, 3056
 3057, 3058, 3059, 3060, 3061, 3062, 3063, 3064, 3065, 3066, 3067, 3068, 3069, 3070, 3071, 3072
 4065, 4066, 4067, 4068, 4069, 4070, 4071, 4072, 4073, 4074, 4075, 4076, 4077, 4078, 4079, 4080
 4081, 4082, 4083, 4084, 4085, 4086, 4087, 4088, 4089, 4090, 4091, 4092, 4093, 4094, 4095, 4096
 5089, 5090, 5091, 5092, 5093, 5094, 5095, 5096, 5097, 5098, 5099, 5100, 5101, 5102, 5103, 5104
 5105, 5106, 5107, 5108, 5109, 5110, 5111, 5112, 5113, 5114, 5115, 5116, 5117, 5118, 5119, 5120
 6113, 6114, 6115, 6116, 6117, 6118, 6119, 6120, 6121, 6122, 6123, 6124, 6125, 6126, 6127, 6128
 6129, 6130, 6131, 6132, 6133, 6134, 6135, 6136, 6137, 6138, 6139, 6140, 6141, 6142, 6143, 6144
*Nset, nset=y0edge-top, generate
 5121, 5152, 1
*Nset, nset=y0edge-bottom, generate
 1, 32, 1
*Elset, elset=_Bottom_S1, internal, generate
   1,  961,    1
*Surface, type=ELEMENT, name=Bottom
_Bottom_S1, S1
*Elset, elset=_Top_S2, internal, generate
 3845,  4805,     1
*Surface, type=ELEMENT, name=Top
_Top_S2, S2
** Section: Solid-Plate
*Solid Section, elset=ALL, material=Steel_49Fe-24Ni-21Cr-6Mo_wt
,
*End Part
**  
*Part, name=Honeycomb
*Node
      1,         30.5,        274.5,          51.
      2,         30.5,        274.5,           0.
      3,         30.5,         305.,           0.
      4,         30.5,         305.,          51.
      5,         30.5,         244.,          51.
      6,         30.5,         244.,           0.
      7,         30.5,        213.5,          51.
      8,         30.5,        213.5,           0.
      9,         30.5,         183.,          51.
     10,         30.5,         183.,           0.
     11,         30.5,        152.5,          51.
     12,         30.5,        152.5,           0.
     13,         30.5,         122.,          51.
     14,         30.5,         122.,           0.
     15,         30.5,         91.5,          51.
     16,         30.5,         91.5,           0.
     17,         30.5,          61.,          51.
     18,         30.5,          61.,           0.
     19,         30.5,         30.5,           0.
     20,         30.5,         30.5,          51.
** ... 31507 like lines cut
*Element, type=S4R
  1,    1,  235, 5428,  302
  2,  235,  236, 5429, 5428
  3,  236,  237, 5430, 5429
  4,  237,  238, 5431, 5430
  5,  238,  239, 5432, 5431
  6,  239,  240, 5433, 5432
  7,  240,  241, 5434, 5433
  8,  241,  242, 5435, 5434
  9,  242,  243, 5436, 5435
 10,  243,  244, 5437, 5436
 11,  244,  245, 5438, 5437
 12,  245,  246, 5439, 5438
 13,  246,  247, 5440, 5439
 14,  247,  248, 5441, 5440
 15,  248,  249, 5442, 5441
 16,  249,  250, 5443, 5442
 17,  250,  251, 5444, 5443
 18,  251,  252, 5445, 5444
 19,  252,  253, 5446, 5445
 20,  253,  254, 5447, 5446
** ... 32380 like lines cut
*Nset, nset=ALL, generate
     1,  31527,      1
*Elset, elset=ALL, generate
     1,  32400,      1
*Nset, nset=Top
    1,    4,    5,    7,    9,   11,   13,   15,   17,   20,   21,   23,   25,   27,   29,   31
   33,   35,   37,   39,   41,   44,   45,   47,   49,   51,   53,   55,   57,   60,   62,   64
   66,   68,   70,   72,   74,   75,   78,   79,   81,   83,   85,   87,   89,   91,   93,   96
   97,   99,  101,  103,  105,  107,  109,  111,  114,  115,  117,  119,  121,  123,  125,  127
  129,  132,  133,  135,  137,  139,  141,  143,  145,  147,  150,  151,  153,  155,  157,  159
  161,  163,  165,  168,  169,  171,  173,  175,  177,  179,  181,  183,  186,  187,  189,  191
  193,  195,  197,  199,  201,  204,  205,  207,  209,  211,  213,  215,  218,  220,  222,  224
  226,  228,  230,  232,  234,  298,  299,  300,  301,  302,  337,  338,  339,  340,  341,  342
  343,  344,  345,  346,  415,  416,  417,  418,  419,  420,  421,  422,  423,  424,  493,  494
  495,  496,  497,  498,  499,  500,  501,  502,  571,  572,  573,  574,  575,  605,  606,  607
  608,  609,  649,  650,  651,  652,  653,  654,  655,  656,  657,  658,  693,  694,  695,  696
  697,  732,  733,  734,  735,  736,  771,  772,  773,  774,  775,  810,  811,  812,  813,  814
  849,  850,  851,  852,  853,  888,  889,  890,  891,  892,  927,  928,  929,  930,  931,  966
  967,  968,  969,  970, 1068, 1069, 1070, 1071, 1072, 1107, 1108, 1109, 1110, 1111, 1146, 1147
 1148, 1149, 1150, 1185, 1186, 1187, 1188, 1189, 1224, 1225, 1226, 1227, 1228, 1263, 1264, 1265
 1266, 1267, 1302, 1303, 1304, 1305, 1306, 1341, 1342, 1343, 1344, 1345, 1351, 1352, 1353, 1354
 1355, 1390, 1391, 1392, 1393, 1394, 1429, 1430, 1431, 1432, 1433, 1468, 1469, 1470, 1471, 1472
 1507, 1508, 1509, 1510, 1511, 1546, 1547, 1548, 1549, 1550, 1585, 1586, 1587, 1588, 1589, 1624
 1625, 1626, 1627, 1628, 1663, 1664, 1665, 1666, 1667, 1731, 1732, 1733, 1734, 1735, 1770, 1771
 1772, 1773, 1774, 1775, 1776, 1777, 1778, 1779, 1848, 1849, 1850, 1851, 1852, 1853, 1854, 1855
** ... 44 like lines cut
*Elset, elset=Top
     1,    31,    61,    91,   121,   151,   181,   211,   241,   271,   301,   331,   390,   420,   450,   480
   510,   540,   541,   571,   601,   631,   661,   691,   750,   780,   810,   840,   870,   900,   901,   931
   961,   991,  1021,  1051,  1110,  1140,  1170,  1200,  1230,  1260,  1261,  1291,  1321,  1351,  1381,  1411
  1470,  1500,  1530,  1560,  1590,  1620,  1621,  1651,  1681,  1711,  1741,  1771,  1830,  1860,  1890,  1920
  1950,  1980,  2010,  2040,  2070,  2100,  2130,  2160,  2190,  2220,  2250,  2280,  2310,  2340,  2370,  2400
  2430,  2460,  2490,  2520,  2550,  2580,  2610,  2640,  2670,  2700,  2730,  2760,  2790,  2820,  2850,  2880
  2910,  2940,  2970,  3000,  3030,  3060,  3090,  3120,  3150,  3180,  3210,  3240,  3270,  3300,  3330,  3360
  3390,  3420,  3421,  3451,  3481,  3511,  3541,  3571,  3601,  3631,  3661,  3691,  3721,  3751,  3781,  3811
  3841,  3871,  3901,  3931,  3961,  3991,  4021,  4051,  4081,  4111,  4141,  4171,  4201,  4231,  4261,  4291
  4321,  4351,  4381,  4411,  4441,  4471,  4501,  4531,  4561,  4591,  4621,  4651,  4681,  4711,  4741,  4771
  4801,  4831,  4861,  4891,  4921,  4951,  4981,  5011,  5041,  5071,  5101,  5131,  5161,  5191,  5221,  5251
  5281,  5311,  5341,  5371,  5401,  5431,  5461,  5491,  5521,  5551,  5581,  5611,  5641,  5671,  5701,  5731
  5761,  5791,  5821,  5851,  5881,  5911,  5941,  5971,  6001,  6031,  6061,  6091,  6121,  6151,  6181,  6211
  6241,  6271,  6301,  6331,  6361,  6391,  6421,  6451,  6481,  6511,  6541,  6571,  6601,  6631,  6661,  6691
  6721,  6751,  6781,  6811,  6870,  6900,  6930,  6960,  6990,  7020,  7021,  7051,  7081,  7111,  7141,  7171
  7230,  7260,  7290,  7320,  7350,  7380,  7381,  7411,  7441,  7471,  7501,  7531,  7590,  7620,  7650,  7680
  7710,  7740,  7770,  7800,  7830,  7860,  7890,  7920,  7921,  7951,  7981,  8011,  8041,  8071,  8101,  8131
  8161,  8191,  8221,  8251,  8281,  8311,  8341,  8371,  8401,  8431,  8461,  8491,  8521,  8551,  8581,  8611
  8641,  8671,  8701,  8731,  8761,  8791,  8821,  8851,  8881,  8911,  8941,  8971,  9001,  9031,  9061,  9091
  9121,  9151,  9181,  9211,  9241,  9271,  9301,  9331,  9361,  9391,  9421,  9451,  9481,  9511,  9541,  9571
** ... 48 like lines cut
*Nset, nset=Bottom
    2,    3,    6,    8,   10,   12,   14,   16,   18,   19,   22,   24,   26,   28,   30,   32
   34,   36,   38,   40,   42,   43,   46,   48,   50,   52,   54,   56,   58,   59,   61,   63
   65,   67,   69,   71,   73,   76,   77,   80,   82,   84,   86,   88,   90,   92,   94,   95
   98,  100,  102,  104,  106,  108,  110,  112,  113,  116,  118,  120,  122,  124,  126,  128
  130,  131,  134,  136,  138,  140,  142,  144,  146,  148,  149,  152,  154,  156,  158,  160
  162,  164,  166,  167,  170,  172,  174,  176,  178,  180,  182,  184,  185,  188,  190,  192
  194,  196,  198,  200,  202,  203,  206,  208,  210,  212,  214,  216,  217,  219,  221,  223
  225,  227,  229,  231,  233,  264,  265,  266,  267,  268,  332,  333,  334,  335,  336,  376
  377,  378,  379,  380,  410,  411,  412,  413,  414,  454,  455,  456,  457,  458,  488,  489
  490,  491,  492,  532,  533,  534,  535,  536,  566,  567,  568,  569,  570,  639,  640,  641
  642,  643,  644,  645,  646,  647,  648,  688,  689,  690,  691,  692,  727,  728,  729,  730
  731,  766,  767,  768,  769,  770,  805,  806,  807,  808,  809,  844,  845,  846,  847,  848
  883,  884,  885,  886,  887,  922,  923,  924,  925,  926,  961,  962,  963,  964,  965, 1000
 1001, 1002, 1003, 1004, 1034, 1035, 1036, 1037, 1038, 1102, 1103, 1104, 1105, 1106, 1141, 1142
 1143, 1144, 1145, 1180, 1181, 1182, 1183, 1184, 1219, 1220, 1221, 1222, 1223, 1258, 1259, 1260
 1261, 1262, 1297, 1298, 1299, 1300, 1301, 1336, 1337, 1338, 1339, 1340, 1346, 1347, 1348, 1349
 1350, 1356, 1357, 1358, 1359, 1360, 1395, 1396, 1397, 1398, 1399, 1434, 1435, 1436, 1437, 1438
 1473, 1474, 1475, 1476, 1477, 1512, 1513, 1514, 1515, 1516, 1551, 1552, 1553, 1554, 1555, 1590
 1591, 1592, 1593, 1594, 1629, 1630, 1631, 1632, 1633, 1697, 1698, 1699, 1700, 1701, 1765, 1766
 1767, 1768, 1769, 1809, 1810, 1811, 1812, 1813, 1843, 1844, 1845, 1846, 1847, 1887, 1888, 1889
** ... 44 like lines cut
*Elset, elset=Bottom
    30,    60,    90,   120,   150,   180,   210,   240,   270,   300,   330,   360,   361,   391,   421,   451
   481,   511,   570,   600,   630,   660,   690,   720,   721,   751,   781,   811,   841,   871,   930,   960
   990,  1020,  1050,  1080,  1081,  1111,  1141,  1171,  1201,  1231,  1290,  1320,  1350,  1380,  1410,  1440
  1441,  1471,  1501,  1531,  1561,  1591,  1650,  1680,  1710,  1740,  1770,  1800,  1801,  1831,  1861,  1891
  1921,  1951,  1981,  2011,  2041,  2071,  2101,  2131,  2161,  2191,  2221,  2251,  2281,  2311,  2341,  2371
  2401,  2431,  2461,  2491,  2521,  2551,  2581,  2611,  2641,  2671,  2701,  2731,  2761,  2791,  2821,  2851
  2881,  2911,  2941,  2971,  3001,  3031,  3061,  3091,  3121,  3151,  3181,  3211,  3241,  3271,  3301,  3331
  3361,  3391,  3450,  3480,  3510,  3540,  3570,  3600,  3630,  3660,  3690,  3720,  3750,  3780,  3810,  3840
  3870,  3900,  3930,  3960,  3990,  4020,  4050,  4080,  4110,  4140,  4170,  4200,  4230,  4260,  4290,  4320
  4350,  4380,  4410,  4440,  4470,  4500,  4530,  4560,  4590,  4620,  4650,  4680,  4710,  4740,  4770,  4800
  4830,  4860,  4890,  4920,  4950,  4980,  5010,  5040,  5070,  5100,  5130,  5160,  5190,  5220,  5250,  5280
  5310,  5340,  5370,  5400,  5430,  5460,  5490,  5520,  5550,  5580,  5610,  5640,  5670,  5700,  5730,  5760
  5790,  5820,  5850,  5880,  5910,  5940,  5970,  6000,  6030,  6060,  6090,  6120,  6150,  6180,  6210,  6240
  6270,  6300,  6330,  6360,  6390,  6420,  6450,  6480,  6510,  6540,  6570,  6600,  6630,  6660,  6690,  6720
  6750,  6780,  6810,  6840,  6841,  6871,  6901,  6931,  6961,  6991,  7050,  7080,  7110,  7140,  7170,  7200
  7201,  7231,  7261,  7291,  7321,  7351,  7410,  7440,  7470,  7500,  7530,  7560,  7561,  7591,  7621,  7651
  7681,  7711,  7741,  7771,  7801,  7831,  7861,  7891,  7950,  7980,  8010,  8040,  8070,  8100,  8130,  8160
  8190,  8220,  8250,  8280,  8310,  8340,  8370,  8400,  8430,  8460,  8490,  8520,  8550,  8580,  8610,  8640
  8670,  8700,  8730,  8760,  8790,  8820,  8850,  8880,  8910,  8940,  8970,  9000,  9030,  9060,  9090,  9120
  9150,  9180,  9210,  9240,  9270,  9300,  9330,  9360,  9390,  9420,  9450,  9480,  9510,  9540,  9570,  9600
** ... 48 like lines cut
** Section: Shell-Honeycomb
*Shell Section, elset=ALL, material=Steel_49Fe-24Ni-21Cr-6Mo_wt
0.76, 5
*End Part
**  
*Part, name=Top-Plate
*Node
      1,         305.,           0.,           0.
      2,   295.161285,           0.,           0.
      3,   285.322571,           0.,           0.
      4,   275.483856,           0.,           0.
      5,   265.645172,           0.,           0.
      6,   255.806458,           0.,           0.
      7,   245.967743,           0.,           0.
      8,   236.129028,           0.,           0.
      9,   226.290329,           0.,           0.
     10,   216.451614,           0.,           0.
     11,     206.6129,           0.,           0.
     12,     196.7742,           0.,           0.
     13,   186.935486,           0.,           0.
     14,   177.096771,           0.,           0.
     15,   167.258072,           0.,           0.
     16,   157.419357,           0.,           0.
     17,   147.580643,           0.,           0.
     18,   137.741928,           0.,           0.
     19,   127.903229,           0.,           0.
     20,   118.064514,           0.,           0.
** ... 6124 like lines cut
*Element, type=C3D8R
   1,   33,   34,    2,    1, 1057, 1058, 1026, 1025
   2,   34,   35,    3,    2, 1058, 1059, 1027, 1026
   3,   35,   36,    4,    3, 1059, 1060, 1028, 1027
   4,   36,   37,    5,    4, 1060, 1061, 1029, 1028
   5,   37,   38,    6,    5, 1061, 1062, 1030, 1029
   6,   38,   39,    7,    6, 1062, 1063, 1031, 1030
   7,   39,   40,    8,    7, 1063, 1064, 1032, 1031
   8,   40,   41,    9,    8, 1064, 1065, 1033, 1032
   9,   41,   42,   10,    9, 1065, 1066, 1034, 1033
  10,   42,   43,   11,   10, 1066, 1067, 1035, 1034
  11,   43,   44,   12,   11, 1067, 1068, 1036, 1035
  12,   44,   45,   13,   12, 1068, 1069, 1037, 1036
  13,   45,   46,   14,   13, 1069, 1070, 1038, 1037
  14,   46,   47,   15,   14, 1070, 1071, 1039, 1038
  15,   47,   48,   16,   15, 1071, 1072, 1040, 1039
  16,   48,   49,   17,   16, 1072, 1073, 1041, 1040
  17,   49,   50,   18,   17, 1073, 1074, 1042, 1041
  18,   50,   51,   19,   18, 1074, 1075, 1043, 1042
  19,   51,   52,   20,   19, 1075, 1076, 1044, 1043
  20,   52,   53,   21,   20, 1076, 1077, 1045, 1044
** ... 4785 like lines cut
*Nset, nset=ALL, generate
    1,  6144,     1
*Elset, elset=ALL, generate
    1,  4805,     1
*Nset, nset=Top-Surf, generate
 5121,  6144,     1
*Elset, elset=Top-Surf, generate
 3845,  4805,     1
*Nset, nset=Bottom-Surf, generate
    1,  1024,     1
*Elset, elset=Bottom-Surf, generate
   1,  961,    1
*Nset, nset=x0, generate
   32,  6144,    32
*Nset, nset=xL, generate
    1,  6113,    32
*Nset, nset=y0
    1,    2,    3,    4,    5,    6,    7,    8,    9,   10,   11,   12,   13,   14,   15,   16
   17,   18,   19,   20,   21,   22,   23,   24,   25,   26,   27,   28,   29,   30,   31,   32
 1025, 1026, 1027, 1028, 1029, 1030, 1031, 1032, 1033, 1034, 1035, 1036, 1037, 1038, 1039, 1040
 1041, 1042, 1043, 1044, 1045, 1046, 1047, 1048, 1049, 1050, 1051, 1052, 1053, 1054, 1055, 1056
 2049, 2050, 2051, 2052, 2053, 2054, 2055, 2056, 2057, 2058, 2059, 2060, 2061, 2062, 2063, 2064
 2065, 2066, 2067, 2068, 2069, 2070, 2071, 2072, 2073, 2074, 2075, 2076, 2077, 2078, 2079, 2080
 3073, 3074, 3075, 3076, 3077, 3078, 3079, 3080, 3081, 3082, 3083, 3084, 3085, 3086, 3087, 3088
 3089, 3090, 3091, 3092, 3093, 3094, 3095, 3096, 3097, 3098, 3099, 3100, 3101, 3102, 3103, 3104
 4097, 4098, 4099, 4100, 4101, 4102, 4103, 4104, 4105, 4106, 4107, 4108, 4109, 4110, 4111, 4112
 4113, 4114, 4115, 4116, 4117, 4118, 4119, 4120, 4121, 4122, 4123, 4124, 4125, 4126, 4127, 4128
 5121, 5122, 5123, 5124, 5125, 5126, 5127, 5128, 5129, 5130, 5131, 5132, 5133, 5134, 5135, 5136
 5137, 5138, 5139, 5140, 5141, 5142, 5143, 5144, 5145, 5146, 5147, 5148, 5149, 5150, 5151, 5152
*Nset, nset=yL
  993,  994,  995,  996,  997,  998,  999, 1000, 1001, 1002, 1003, 1004, 1005, 1006, 1007, 1008
 1009, 1010, 1011, 1012, 1013, 1014, 1015, 1016, 1017, 1018, 1019, 1020, 1021, 1022, 1023, 1024
 2017, 2018, 2019, 2020, 2021, 2022, 2023, 2024, 2025, 2026, 2027, 2028, 2029, 2030, 2031, 2032
 2033, 2034, 2035, 2036, 2037, 2038, 2039, 2040, 2041, 2042, 2043, 2044, 2045, 2046, 2047, 2048
 3041, 3042, 3043, 3044, 3045, 3046, 3047, 3048, 3049, 3050, 3051, 3052, 3053, 3054, 3055, 3056
 3057, 3058, 3059, 3060, 3061, 3062, 3063, 3064, 3065, 3066, 3067, 3068, 3069, 3070, 3071, 3072
 4065, 4066, 4067, 4068, 4069, 4070, 4071, 4072, 4073, 4074, 4075, 4076, 4077, 4078, 4079, 4080
 4081, 4082, 4083, 4084, 4085, 4086, 4087, 4088, 4089, 4090, 4091, 4092, 4093, 4094, 4095, 4096
 5089, 5090, 5091, 5092, 5093, 5094, 5095, 5096, 5097, 5098, 5099, 5100, 5101, 5102, 5103, 5104
 5105, 5106, 5107, 5108, 5109, 5110, 5111, 5112, 5113, 5114, 5115, 5116, 5117, 5118, 5119, 5120
 6113, 6114, 6115, 6116, 6117, 6118, 6119, 6120, 6121, 6122, 6123, 6124, 6125, 6126, 6127, 6128
 6129, 6130, 6131, 6132, 6133, 6134, 6135, 6136, 6137, 6138, 6139, 6140, 6141, 6142, 6143, 6144
*Nset, nset=y0edge-top, generate
 5121, 5152, 1
*Nset, nset=y0edge-bottom, generate
 1, 32, 1
*Elset, elset=_Bottom_S1, internal, generate
   1,  961,    1
*Surface, type=ELEMENT, name=Bottom
_Bottom_S1, S1
*Elset, elset=_Top_S2, internal, generate
 3845,  4805,     1
*Surface, type=ELEMENT, name=Top
_Top_S2, S2
** Section: Solid-Plate
*Solid Section, elset=ALL, material=Steel_49Fe-24Ni-21Cr-6Mo_wt
,
*End Part
**  
**
** ASSEMBLY
**
*Assembly, name=Assembly
**  
*Instance, name=Honeycomb-1, part=Honeycomb
          0.,           0.,           5.
*End Instance
**  
*Instance, name=Bottom-Plate-1, part=Bottom-Plate
*End Instance
**  
*Instance, name=Top-Plate-1, part=Top-Plate
          0.,           0.,          56.
*End Instance
**  
*Nset, nset=Right-Clamped, instance=Honeycomb-1
   43,   44,  219,  220,  221,  222,  223,  224,  225,  226,  227,  228,  229,  230,  231,  232
  233,  234, 1039, 1040, 1041, 1042, 1043, 1044, 1045, 1046, 1047, 1048, 1049, 1050, 1051, 1052
 1053, 1054, 1055, 1056, 1057, 1058, 1059, 1060, 1061, 1062, 1063, 1064, 1065, 1066, 1067, 5051
 5052, 5053, 5054, 5055, 5056, 5057, 5058, 5059, 5060, 5061, 5062, 5063, 5064, 5065, 5066, 5067
 5068, 5069, 5070, 5071, 5072, 5073, 5074, 5075, 5076, 5077, 5078, 5079, 5100, 5101, 5102, 5103
 5104, 5105, 5106, 5107, 5108, 5109, 5110, 5111, 5112, 5113, 5114, 5115, 5116, 5117, 5118, 5119
 5120, 5121, 5122, 5123, 5124, 5125, 5126, 5127, 5128, 5149, 5150, 5151, 5152, 5153, 5154, 5155
 5156, 5157, 5158, 5159, 5160, 5161, 5162, 5163, 5164, 5165, 5166, 5167, 5168, 5169, 5170, 5171
 5172, 5173, 5174, 5175, 5176, 5177, 5198, 5199, 5200, 5201, 5202, 5203, 5204, 5205, 5206, 5207
 5208, 5209, 5210, 5211, 5212, 5213, 5214, 5215, 5216, 5217, 5218, 5219, 5220, 5221, 5222, 5223
 5224, 5225, 5226, 5247, 5248, 5249, 5250, 5251, 5252, 5253, 5254, 5255, 5256, 5257, 5258, 5259
 5260, 5261, 5262, 5263, 5264, 5265, 5266, 5267, 5268, 5269, 5270, 5271, 5272, 5273, 5274, 5275
 5296, 5297, 5298, 5299, 5300, 5301, 5302, 5303, 5304, 5305, 5306, 5307, 5308, 5309, 5310, 5311
 5312, 5313, 5314, 5315, 5316, 5317, 5318, 5319, 5320, 5321, 5322, 5323, 5324, 5345, 5346, 5347
 5348, 5349, 5350, 5351, 5352, 5353, 5354, 5355, 5356, 5357, 5358, 5359, 5360, 5361, 5362, 5363
 5364, 5365, 5366, 5367, 5368, 5369, 5370, 5371, 5372, 5373, 5394, 5395, 5396, 5397, 5398, 5399
 5400, 5401, 5402, 5403, 5404, 5405, 5406, 5407, 5408, 5409, 5410, 5411, 5412, 5413, 5414, 5415
 5416, 5417, 5418, 5419, 5420, 5421, 5422
*Nset, nset=Right-Clamped, instance=Bottom-Plate-1, generate
    1,  6113,    32
*Nset, nset=Right-Clamped, instance=Top-Plate-1, generate
    1,  6113,    32
*Elset, elset=Right-Clamped, instance=Honeycomb-1
  3571,  3572,  3573,  3574,  3575,  3576,  3577,  3578,  3579,  3580,  3581,  3582,  3583,  3584,  3585,  3586
  3587,  3588,  3589,  3590,  3591,  3592,  3593,  3594,  3595,  3596,  3597,  3598,  3599,  3600, 29851, 29852
 29853, 29854, 29855, 29856, 29857, 29858, 29859, 29860, 29861, 29862, 29863, 29864, 29865, 29866, 29867, 29868
 29869, 29870, 29871, 29872, 29873, 29874, 29875, 29876, 29877, 29878, 29879, 29880, 30211, 30212, 30213, 30214
 30215, 30216, 30217, 30218, 30219, 30220, 30221, 30222, 30223, 30224, 30225, 30226, 30227, 30228, 30229, 30230
 30231, 30232, 30233, 30234, 30235, 30236, 30237, 30238, 30239, 30240, 30571, 30572, 30573, 30574, 30575, 30576
 30577, 30578, 30579, 30580, 30581, 30582, 30583, 30584, 30585, 30586, 30587, 30588, 30589, 30590, 30591, 30592
 30593, 30594, 30595, 30596, 30597, 30598, 30599, 30600, 30931, 30932, 30933, 30934, 30935, 30936, 30937, 30938
 30939, 30940, 30941, 30942, 30943, 30944, 30945, 30946, 30947, 30948, 30949, 30950, 30951, 30952, 30953, 30954
 30955, 30956, 30957, 30958, 30959, 30960, 31291, 31292, 31293, 31294, 31295, 31296, 31297, 31298, 31299, 31300
 31301, 31302, 31303, 31304, 31305, 31306, 31307, 31308, 31309, 31310, 31311, 31312, 31313, 31314, 31315, 31316
 31317, 31318, 31319, 31320, 31651, 31652, 31653, 31654, 31655, 31656, 31657, 31658, 31659, 31660, 31661, 31662
 31663, 31664, 31665, 31666, 31667, 31668, 31669, 31670, 31671, 31672, 31673, 31674, 31675, 31676, 31677, 31678
 31679, 31680, 32011, 32012, 32013, 32014, 32015, 32016, 32017, 32018, 32019, 32020, 32021, 32022, 32023, 32024
 32025, 32026, 32027, 32028, 32029, 32030, 32031, 32032, 32033, 32034, 32035, 32036, 32037, 32038, 32039, 32040
 32371, 32372, 32373, 32374, 32375, 32376, 32377, 32378, 32379, 32380, 32381, 32382, 32383, 32384, 32385, 32386
 32387, 32388, 32389, 32390, 32391, 32392, 32393, 32394, 32395, 32396, 32397, 32398, 32399, 32400
*Elset, elset=Right-Clamped, instance=Bottom-Plate-1, generate
    1,  4775,    31
*Elset, elset=Right-Clamped, instance=Top-Plate-1, generate
    1,  4775,    31
*Nset, nset=Bottom-Y-Symm, instance=Honeycomb-1
   21,   22,   91,   92,  109,  110,  127,  128,  145,  146,  163,  164,  181,  182,  199,  200
  213,  214,  610,  611,  612,  613,  614,  615,  616,  617,  618,  619,  620,  621,  622,  623
  624,  625,  626,  627,  628,  629,  630,  631,  632,  633,  634,  635,  636,  637,  638, 1975
 1976, 1977, 1978, 1979, 1980, 1981, 1982, 1983, 1984, 1985, 1986, 1987, 1988, 1989, 1990, 1991
 1992, 1993, 1994, 1995, 1996, 1997, 1998, 1999, 2000, 2001, 2002, 2003, 2406, 2407, 2408, 2409
 2410, 2411, 2412, 2413, 2414, 2415, 2416, 2417, 2418, 2419, 2420, 2421, 2422, 2423, 2424, 2425
 2426, 2427, 2428, 2429, 2430, 2431, 2432, 2433, 2434, 2837, 2838, 2839, 2840, 2841, 2842, 2843
 2844, 2845, 2846, 2847, 2848, 2849, 2850, 2851, 2852, 2853, 2854, 2855, 2856, 2857, 2858, 2859
 2860, 2861, 2862, 2863, 2864, 2865, 3268, 3269, 3270, 3271, 3272, 3273, 3274, 3275, 3276, 3277
 3278, 3279, 3280, 3281, 3282, 3283, 3284, 3285, 3286, 3287, 3288, 3289, 3290, 3291, 3292, 3293
 3294, 3295, 3296, 3699, 3700, 3701, 3702, 3703, 3704, 3705, 3706, 3707, 3708, 3709, 3710, 3711
 3712, 3713, 3714, 3715, 3716, 3717, 3718, 3719, 3720, 3721, 3722, 3723, 3724, 3725, 3726, 3727
 4130, 4131, 4132, 4133, 4134, 4135, 4136, 4137, 4138, 4139, 4140, 4141, 4142, 4143, 4144, 4145
 4146, 4147, 4148, 4149, 4150, 4151, 4152, 4153, 4154, 4155, 4156, 4157, 4158, 4561, 4562, 4563
 4564, 4565, 4566, 4567, 4568, 4569, 4570, 4571, 4572, 4573, 4574, 4575, 4576, 4577, 4578, 4579
 4580, 4581, 4582, 4583, 4584, 4585, 4586, 4587, 4588, 4589, 4914, 4915, 4916, 4917, 4918, 4919
 4920, 4921, 4922, 4923, 4924, 4925, 4926, 4927, 4928, 4929, 4930, 4931, 4932, 4933, 4934, 4935
 4936, 4937, 4938, 4939, 4940, 4941, 4942
*Nset, nset=Bottom-Y-Symm, instance=Bottom-Plate-1
    1,    2,    3,    4,    5,    6,    7,    8,    9,   10,   11,   12,   13,   14,   15,   16
   17,   18,   19,   20,   21,   22,   23,   24,   25,   26,   27,   28,   29,   30,   31,   32
 1025, 1026, 1027, 1028, 1029, 1030, 1031, 1032, 1033, 1034, 1035, 1036, 1037, 1038, 1039, 1040
 1041, 1042, 1043, 1044, 1045, 1046, 1047, 1048, 1049, 1050, 1051, 1052, 1053, 1054, 1055, 1056
 2049, 2050, 2051, 2052, 2053, 2054, 2055, 2056, 2057, 2058, 2059, 2060, 2061, 2062, 2063, 2064
 2065, 2066, 2067, 2068, 2069, 2070, 2071, 2072, 2073, 2074, 2075, 2076, 2077, 2078, 2079, 2080
 3073, 3074, 3075, 3076, 3077, 3078, 3079, 3080, 3081, 3082, 3083, 3084, 3085, 3086, 3087, 3088
 3089, 3090, 3091, 3092, 3093, 3094, 3095, 3096, 3097, 3098, 3099, 3100, 3101, 3102, 3103, 3104
 4097, 4098, 4099, 4100, 4101, 4102, 4103, 4104, 4105, 4106, 4107, 4108, 4109, 4110, 4111, 4112
 4113, 4114, 4115, 4116, 4117, 4118, 4119, 4120, 4121, 4122, 4123, 4124, 4125, 4126, 4127, 4128
 5121, 5122, 5123, 5124, 5125, 5126, 5127, 5128, 5129, 5130, 5131, 5132, 5133, 5134, 5135, 5136
 5137, 5138, 5139, 5140, 5141, 5142, 5143, 5144, 5145, 5146, 5147, 5148, 5149, 5150, 5151, 5152
*Nset, nset=Bottom-Y-Symm, instance=Top-Plate-1
    1,    2,    3,    4,    5,    6,    7,    8,    9,   10,   11,   12,   13,   14,   15,   16
   17,   18,   19,   20,   21,   22,   23,   24,   25,   26,   27,   28,   29,   30,   31,   32
 1025, 1026, 1027, 1028, 1029, 1030, 1031, 1032, 1033, 1034, 1035, 1036, 1037, 1038, 1039, 1040
 1041, 1042, 1043, 1044, 1045, 1046, 1047, 1048, 1049, 1050, 1051, 1052, 1053, 1054, 1055, 1056
 2049, 2050, 2051, 2052, 2053, 2054, 2055, 2056, 2057, 2058, 2059, 2060, 2061, 2062, 2063, 2064
 2065, 2066, 2067, 2068, 2069, 2070, 2071, 2072, 2073, 2074, 2075, 2076, 2077, 2078, 2079, 2080
 3073, 3074, 3075, 3076, 3077, 3078, 3079, 3080, 3081, 3082, 3083, 3084, 3085, 3086, 3087, 3088
 3089, 3090, 3091, 3092, 3093, 3094, 3095, 3096, 3097, 3098, 3099, 3100, 3101, 3102, 3103, 3104
 4097, 4098, 4099, 4100, 4101, 4102, 4103, 4104, 4105, 4106, 4107, 4108, 4109, 4110, 4111, 4112
 4113, 4114, 4115, 4116, 4117, 4118, 4119, 4120, 4121, 4122, 4123, 4124, 4125, 4126, 4127, 4128
 5121, 5122, 5123, 5124, 5125, 5126, 5127, 5128, 5129, 5130, 5131, 5132, 5133, 5134, 5135, 5136
 5137, 5138, 5139, 5140, 5141, 5142, 5143, 5144, 5145, 5146, 5147, 5148, 5149, 5150, 5151, 5152
*Elset, elset=Bottom-Y-Symm, instance=Honeycomb-1
  1591,  1592,  1593,  1594,  1595,  1596,  1597,  1598,  1599,  1600,  1601,  1602,  1603,  1604,  1605,  1606
  1607,  1608,  1609,  1610,  1611,  1612,  1613,  1614,  1615,  1616,  1617,  1618,  1619,  1620,  7891,  7892
  7893,  7894,  7895,  7896,  7897,  7898,  7899,  7900,  7901,  7902,  7903,  7904,  7905,  7906,  7907,  7908
  7909,  7910,  7911,  7912,  7913,  7914,  7915,  7916,  7917,  7918,  7919,  7920, 10951, 10952, 10953, 10954
 10955, 10956, 10957, 10958, 10959, 10960, 10961, 10962, 10963, 10964, 10965, 10966, 10967, 10968, 10969, 10970
 10971, 10972, 10973, 10974, 10975, 10976, 10977, 10978, 10979, 10980, 14011, 14012, 14013, 14014, 14015, 14016
 14017, 14018, 14019, 14020, 14021, 14022, 14023, 14024, 14025, 14026, 14027, 14028, 14029, 14030, 14031, 14032
 14033, 14034, 14035, 14036, 14037, 14038, 14039, 14040, 17071, 17072, 17073, 17074, 17075, 17076, 17077, 17078
 17079, 17080, 17081, 17082, 17083, 17084, 17085, 17086, 17087, 17088, 17089, 17090, 17091, 17092, 17093, 17094
 17095, 17096, 17097, 17098, 17099, 17100, 20131, 20132, 20133, 20134, 20135, 20136, 20137, 20138, 20139, 20140
 20141, 20142, 20143, 20144, 20145, 20146, 20147, 20148, 20149, 20150, 20151, 20152, 20153, 20154, 20155, 20156
 20157, 20158, 20159, 20160, 23191, 23192, 23193, 23194, 23195, 23196, 23197, 23198, 23199, 23200, 23201, 23202
 23203, 23204, 23205, 23206, 23207, 23208, 23209, 23210, 23211, 23212, 23213, 23214, 23215, 23216, 23217, 23218
 23219, 23220, 26251, 26252, 26253, 26254, 26255, 26256, 26257, 26258, 26259, 26260, 26261, 26262, 26263, 26264
 26265, 26266, 26267, 26268, 26269, 26270, 26271, 26272, 26273, 26274, 26275, 26276, 26277, 26278, 26279, 26280
 28951, 28952, 28953, 28954, 28955, 28956, 28957, 28958, 28959, 28960, 28961, 28962, 28963, 28964, 28965, 28966
 28967, 28968, 28969, 28970, 28971, 28972, 28973, 28974, 28975, 28976, 28977, 28978, 28979, 28980
*Elset, elset=Bottom-Y-Symm, instance=Bottom-Plate-1
    1,    2,    3,    4,    5,    6,    7,    8,    9,   10,   11,   12,   13,   14,   15,   16
   17,   18,   19,   20,   21,   22,   23,   24,   25,   26,   27,   28,   29,   30,   31,  962
  963,  964,  965,  966,  967,  968,  969,  970,  971,  972,  973,  974,  975,  976,  977,  978
  979,  980,  981,  982,  983,  984,  985,  986,  987,  988,  989,  990,  991,  992, 1923, 1924
 1925, 1926, 1927, 1928, 1929, 1930, 1931, 1932, 1933, 1934, 1935, 1936, 1937, 1938, 1939, 1940
 1941, 1942, 1943, 1944, 1945, 1946, 1947, 1948, 1949, 1950, 1951, 1952, 1953, 2884, 2885, 2886
 2887, 2888, 2889, 2890, 2891, 2892, 2893, 2894, 2895, 2896, 2897, 2898, 2899, 2900, 2901, 2902
 2903, 2904, 2905, 2906, 2907, 2908, 2909, 2910, 2911, 2912, 2913, 2914, 3845, 3846, 3847, 3848
 3849, 3850, 3851, 3852, 3853, 3854, 3855, 3856, 3857, 3858, 3859, 3860, 3861, 3862, 3863, 3864
 3865, 3866, 3867, 3868, 3869, 3870, 3871, 3872, 3873, 3874, 3875
*Elset, elset=Bottom-Y-Symm, instance=Top-Plate-1
    1,    2,    3,    4,    5,    6,    7,    8,    9,   10,   11,   12,   13,   14,   15,   16
   17,   18,   19,   20,   21,   22,   23,   24,   25,   26,   27,   28,   29,   30,   31,  962
  963,  964,  965,  966,  967,  968,  969,  970,  971,  972,  973,  974,  975,  976,  977,  978
  979,  980,  981,  982,  983,  984,  985,  986,  987,  988,  989,  990,  991,  992, 1923, 1924
 1925, 1926, 1927, 1928, 1929, 1930, 1931, 1932, 1933, 1934, 1935, 1936, 1937, 1938, 1939, 1940
 1941, 1942, 1943, 1944, 1945, 1946, 1947, 1948, 1949, 1950, 1951, 1952, 1953, 2884, 2885, 2886
 2887, 2888, 2889, 2890, 2891, 2892, 2893, 2894, 2895, 2896, 2897, 2898, 2899, 2900, 2901, 2902
 2903, 2904, 2905, 2906, 2907, 2908, 2909, 2910, 2911, 2912, 2913, 2914, 3845, 3846, 3847, 3848
 3849, 3850, 3851, 3852, 3853, 3854, 3855, 3856, 3857, 3858, 3859, 3860, 3861, 3862, 3863, 3864
 3865, 3866, 3867, 3868, 3869, 3870, 3871, 3872, 3873, 3874, 3875
*Nset, nset=Top-Clamped, instance=Honeycomb-1
    3,    4,   77,   78,   95,   96,  113,  114,  131,  132,  149,  150,  167,  168,  185,  186
  203,  204,  269,  270,  271,  272,  273,  274,  275,  276,  277,  278,  279,  280,  281,  282
  283,  284,  285,  286,  287,  288,  289,  290,  291,  292,  293,  294,  295,  296,  297, 1702
 1703, 1704, 1705, 1706, 1707, 1708, 1709, 1710, 1711, 1712, 1713, 1714, 1715, 1716, 1717, 1718
 1719, 1720, 1721, 1722, 1723, 1724, 1725, 1726, 1727, 1728, 1729, 1730, 2133, 2134, 2135, 2136
 2137, 2138, 2139, 2140, 2141, 2142, 2143, 2144, 2145, 2146, 2147, 2148, 2149, 2150, 2151, 2152
 2153, 2154, 2155, 2156, 2157, 2158, 2159, 2160, 2161, 2564, 2565, 2566, 2567, 2568, 2569, 2570
 2571, 2572, 2573, 2574, 2575, 2576, 2577, 2578, 2579, 2580, 2581, 2582, 2583, 2584, 2585, 2586
 2587, 2588, 2589, 2590, 2591, 2592, 2995, 2996, 2997, 2998, 2999, 3000, 3001, 3002, 3003, 3004
 3005, 3006, 3007, 3008, 3009, 3010, 3011, 3012, 3013, 3014, 3015, 3016, 3017, 3018, 3019, 3020
 3021, 3022, 3023, 3426, 3427, 3428, 3429, 3430, 3431, 3432, 3433, 3434, 3435, 3436, 3437, 3438
 3439, 3440, 3441, 3442, 3443, 3444, 3445, 3446, 3447, 3448, 3449, 3450, 3451, 3452, 3453, 3454
 3857, 3858, 3859, 3860, 3861, 3862, 3863, 3864, 3865, 3866, 3867, 3868, 3869, 3870, 3871, 3872
 3873, 3874, 3875, 3876, 3877, 3878, 3879, 3880, 3881, 3882, 3883, 3884, 3885, 4288, 4289, 4290
 4291, 4292, 4293, 4294, 4295, 4296, 4297, 4298, 4299, 4300, 4301, 4302, 4303, 4304, 4305, 4306
 4307, 4308, 4309, 4310, 4311, 4312, 4313, 4314, 4315, 4316, 4719, 4720, 4721, 4722, 4723, 4724
 4725, 4726, 4727, 4728, 4729, 4730, 4731, 4732, 4733, 4734, 4735, 4736, 4737, 4738, 4739, 4740
 4741, 4742, 4743, 4744, 4745, 4746, 4747
*Nset, nset=Top-Clamped, instance=Bottom-Plate-1
  993,  994,  995,  996,  997,  998,  999, 1000, 1001, 1002, 1003, 1004, 1005, 1006, 1007, 1008
 1009, 1010, 1011, 1012, 1013, 1014, 1015, 1016, 1017, 1018, 1019, 1020, 1021, 1022, 1023, 1024
 2017, 2018, 2019, 2020, 2021, 2022, 2023, 2024, 2025, 2026, 2027, 2028, 2029, 2030, 2031, 2032
 2033, 2034, 2035, 2036, 2037, 2038, 2039, 2040, 2041, 2042, 2043, 2044, 2045, 2046, 2047, 2048
 3041, 3042, 3043, 3044, 3045, 3046, 3047, 3048, 3049, 3050, 3051, 3052, 3053, 3054, 3055, 3056
 3057, 3058, 3059, 3060, 3061, 3062, 3063, 3064, 3065, 3066, 3067, 3068, 3069, 3070, 3071, 3072
 4065, 4066, 4067, 4068, 4069, 4070, 4071, 4072, 4073, 4074, 4075, 4076, 4077, 4078, 4079, 4080
 4081, 4082, 4083, 4084, 4085, 4086, 4087, 4088, 4089, 4090, 4091, 4092, 4093, 4094, 4095, 4096
 5089, 5090, 5091, 5092, 5093, 5094, 5095, 5096, 5097, 5098, 5099, 5100, 5101, 5102, 5103, 5104
 5105, 5106, 5107, 5108, 5109, 5110, 5111, 5112, 5113, 5114, 5115, 5116, 5117, 5118, 5119, 5120
 6113, 6114, 6115, 6116, 6117, 6118, 6119, 6120, 6121, 6122, 6123, 6124, 6125, 6126, 6127, 6128
 6129, 6130, 6131, 6132, 6133, 6134, 6135, 6136, 6137, 6138, 6139, 6140, 6141, 6142, 6143, 6144
*Nset, nset=Top-Clamped, instance=Top-Plate-1
  993,  994,  995,  996,  997,  998,  999, 1000, 1001, 1002, 1003, 1004, 1005, 1006, 1007, 1008
 1009, 1010, 1011, 1012, 1013, 1014, 1015, 1016, 1017, 1018, 1019, 1020, 1021, 1022, 1023, 1024
 2017, 2018, 2019, 2020, 2021, 2022, 2023, 2024, 2025, 2026, 2027, 2028, 2029, 2030, 2031, 2032
 2033, 2034, 2035, 2036, 2037, 2038, 2039, 2040, 2041, 2042, 2043, 2044, 2045, 2046, 2047, 2048
 3041, 3042, 3043, 3044, 3045, 3046, 3047, 3048, 3049, 3050, 3051, 3052, 3053, 3054, 3055, 3056
 3057, 3058, 3059, 3060, 3061, 3062, 3063, 3064, 3065, 3066, 3067, 3068, 3069, 3070, 3071, 3072
 4065, 4066, 4067, 4068, 4069, 4070, 4071, 4072, 4073, 4074, 4075, 4076, 4077, 4078, 4079, 4080
 4081, 4082, 4083, 4084, 4085, 4086, 4087, 4088, 4089, 4090, 4091, 4092, 4093, 4094, 4095, 4096
 5089, 5090, 5091, 5092, 5093, 5094, 5095, 5096, 5097, 5098, 5099, 5100, 5101, 5102, 5103, 5104
 5105, 5106, 5107, 5108, 5109, 5110, 5111, 5112, 5113, 5114, 5115, 5116, 5117, 5118, 5119, 5120
 6113, 6114, 6115, 6116, 6117, 6118, 6119, 6120, 6121, 6122, 6123, 6124, 6125, 6126, 6127, 6128
 6129, 6130, 6131, 6132, 6133, 6134, 6135, 6136, 6137, 6138, 6139, 6140, 6141, 6142, 6143, 6144
*Elset, elset=Top-Clamped, instance=Honeycomb-1
   151,   152,   153,   154,   155,   156,   157,   158,   159,   160,   161,   162,   163,   164,   165,   166
   167,   168,   169,   170,   171,   172,   173,   174,   175,   176,   177,   178,   179,   180,  6631,  6632
  6633,  6634,  6635,  6636,  6637,  6638,  6639,  6640,  6641,  6642,  6643,  6644,  6645,  6646,  6647,  6648
  6649,  6650,  6651,  6652,  6653,  6654,  6655,  6656,  6657,  6658,  6659,  6660,  9691,  9692,  9693,  9694
  9695,  9696,  9697,  9698,  9699,  9700,  9701,  9702,  9703,  9704,  9705,  9706,  9707,  9708,  9709,  9710
  9711,  9712,  9713,  9714,  9715,  9716,  9717,  9718,  9719,  9720, 12751, 12752, 12753, 12754, 12755, 12756
 12757, 12758, 12759, 12760, 12761, 12762, 12763, 12764, 12765, 12766, 12767, 12768, 12769, 12770, 12771, 12772
 12773, 12774, 12775, 12776, 12777, 12778, 12779, 12780, 15811, 15812, 15813, 15814, 15815, 15816, 15817, 15818
 15819, 15820, 15821, 15822, 15823, 15824, 15825, 15826, 15827, 15828, 15829, 15830, 15831, 15832, 15833, 15834
 15835, 15836, 15837, 15838, 15839, 15840, 18871, 18872, 18873, 18874, 18875, 18876, 18877, 18878, 18879, 18880
 18881, 18882, 18883, 18884, 18885, 18886, 18887, 18888, 18889, 18890, 18891, 18892, 18893, 18894, 18895, 18896
 18897, 18898, 18899, 18900, 21931, 21932, 21933, 21934, 21935, 21936, 21937, 21938, 21939, 21940, 21941, 21942
 21943, 21944, 21945, 21946, 21947, 21948, 21949, 21950, 21951, 21952, 21953, 21954, 21955, 21956, 21957, 21958
 21959, 21960, 24991, 24992, 24993, 24994, 24995, 24996, 24997, 24998, 24999, 25000, 25001, 25002, 25003, 25004
 25005, 25006, 25007, 25008, 25009, 25010, 25011, 25012, 25013, 25014, 25015, 25016, 25017, 25018, 25019, 25020
 28051, 28052, 28053, 28054, 28055, 28056, 28057, 28058, 28059, 28060, 28061, 28062, 28063, 28064, 28065, 28066
 28067, 28068, 28069, 28070, 28071, 28072, 28073, 28074, 28075, 28076, 28077, 28078, 28079, 28080
*Elset, elset=Top-Clamped, instance=Bottom-Plate-1
  931,  932,  933,  934,  935,  936,  937,  938,  939,  940,  941,  942,  943,  944,  945,  946
  947,  948,  949,  950,  951,  952,  953,  954,  955,  956,  957,  958,  959,  960,  961, 1892
 1893, 1894, 1895, 1896, 1897, 1898, 1899, 1900, 1901, 1902, 1903, 1904, 1905, 1906, 1907, 1908
 1909, 1910, 1911, 1912, 1913, 1914, 1915, 1916, 1917, 1918, 1919, 1920, 1921, 1922, 2853, 2854
 2855, 2856, 2857, 2858, 2859, 2860, 2861, 2862, 2863, 2864, 2865, 2866, 2867, 2868, 2869, 2870
 2871, 2872, 2873, 2874, 2875, 2876, 2877, 2878, 2879, 2880, 2881, 2882, 2883, 3814, 3815, 3816
 3817, 3818, 3819, 3820, 3821, 3822, 3823, 3824, 3825, 3826, 3827, 3828, 3829, 3830, 3831, 3832
 3833, 3834, 3835, 3836, 3837, 3838, 3839, 3840, 3841, 3842, 3843, 3844, 4775, 4776, 4777, 4778
 4779, 4780, 4781, 4782, 4783, 4784, 4785, 4786, 4787, 4788, 4789, 4790, 4791, 4792, 4793, 4794
 4795, 4796, 4797, 4798, 4799, 4800, 4801, 4802, 4803, 4804, 4805
*Elset, elset=Top-Clamped, instance=Top-Plate-1
  931,  932,  933,  934,  935,  936,  937,  938,  939,  940,  941,  942,  943,  944,  945,  946
  947,  948,  949,  950,  951,  952,  953,  954,  955,  956,  957,  958,  959,  960,  961, 1892
 1893, 1894, 1895, 1896, 1897, 1898, 1899, 1900, 1901, 1902, 1903, 1904, 1905, 1906, 1907, 1908
 1909, 1910, 1911, 1912, 1913, 1914, 1915, 1916, 1917, 1918, 1919, 1920, 1921, 1922, 2853, 2854
 2855, 2856, 2857, 2858, 2859, 2860, 2861, 2862, 2863, 2864, 2865, 2866, 2867, 2868, 2869, 2870
 2871, 2872, 2873, 2874, 2875, 2876, 2877, 2878, 2879, 2880, 2881, 2882, 2883, 3814, 3815, 3816
 3817, 3818, 3819, 3820, 3821, 3822, 3823, 3824, 3825, 3826, 3827, 3828, 3829, 3830, 3831, 3832
 3833, 3834, 3835, 3836, 3837, 3838, 3839, 3840, 3841, 3842, 3843, 3844, 4775, 4776, 4777, 4778
 4779, 4780, 4781, 4782, 4783, 4784, 4785, 4786, 4787, 4788, 4789, 4790, 4791, 4792, 4793, 4794
 4795, 4796, 4797, 4798, 4799, 4800, 4801, 4802, 4803, 4804, 4805
*Nset, nset=Left-X-Symm, instance=Honeycomb-1
  23,  24,  25,  26,  27,  28,  29,  30,  31,  32,  33,  34,  35,  36,  37,  38
  39,  40, 659, 660, 661, 662, 663, 664, 665, 666, 667, 668, 669, 670, 671, 672
 673, 674, 675, 676, 677, 678, 679, 680, 681, 682, 683, 684, 685, 686, 687, 698
 699, 700, 701, 702, 703, 704, 705, 706, 707, 708, 709, 710, 711, 712, 713, 714
 715, 716, 717, 718, 719, 720, 721, 722, 723, 724, 725, 726, 737, 738, 739, 740
 741, 742, 743, 744, 745, 746, 747, 748, 749, 750, 751, 752, 753, 754, 755, 756
 757, 758, 759, 760, 761, 762, 763, 764, 765, 776, 777, 778, 779, 780, 781, 782
 783, 784, 785, 786, 787, 788, 789, 790, 791, 792, 793, 794, 795, 796, 797, 798
 799, 800, 801, 802, 803, 804, 815, 816, 817, 818, 819, 820, 821, 822, 823, 824
 825, 826, 827, 828, 829, 830, 831, 832, 833, 834, 835, 836, 837, 838, 839, 840
 841, 842, 843, 854, 855, 856, 857, 858, 859, 860, 861, 862, 863, 864, 865, 866
 867, 868, 869, 870, 871, 872, 873, 874, 875, 876, 877, 878, 879, 880, 881, 882
 893, 894, 895, 896, 897, 898, 899, 900, 901, 902, 903, 904, 905, 906, 907, 908
 909, 910, 911, 912, 913, 914, 915, 916, 917, 918, 919, 920, 921, 932, 933, 934
 935, 936, 937, 938, 939, 940, 941, 942, 943, 944, 945, 946, 947, 948, 949, 950
 951, 952, 953, 954, 955, 956, 957, 958, 959, 960, 971, 972, 973, 974, 975, 976
 977, 978, 979, 980, 981, 982, 983, 984, 985, 986, 987, 988, 989, 990, 991, 992
 993, 994, 995, 996, 997, 998, 999
*Nset, nset=Left-X-Symm, instance=Bottom-Plate-1, generate
   32,  6144,    32
*Nset, nset=Left-X-Symm, instance=Top-Plate-1, generate
   32,  6144,    32
*Elset, elset=Left-X-Symm, instance=Honeycomb-1
 1951, 1952, 1953, 1954, 1955, 1956, 1957, 1958, 1959, 1960, 1961, 1962, 1963, 1964, 1965, 1966
 1967, 1968, 1969, 1970, 1971, 1972, 1973, 1974, 1975, 1976, 1977, 1978, 1979, 1980, 2131, 2132
 2133, 2134, 2135, 2136, 2137, 2138, 2139, 2140, 2141, 2142, 2143, 2144, 2145, 2146, 2147, 2148
 2149, 2150, 2151, 2152, 2153, 2154, 2155, 2156, 2157, 2158, 2159, 2160, 2311, 2312, 2313, 2314
 2315, 2316, 2317, 2318, 2319, 2320, 2321, 2322, 2323, 2324, 2325, 2326, 2327, 2328, 2329, 2330
 2331, 2332, 2333, 2334, 2335, 2336, 2337, 2338, 2339, 2340, 2491, 2492, 2493, 2494, 2495, 2496
 2497, 2498, 2499, 2500, 2501, 2502, 2503, 2504, 2505, 2506, 2507, 2508, 2509, 2510, 2511, 2512
 2513, 2514, 2515, 2516, 2517, 2518, 2519, 2520, 2671, 2672, 2673, 2674, 2675, 2676, 2677, 2678
 2679, 2680, 2681, 2682, 2683, 2684, 2685, 2686, 2687, 2688, 2689, 2690, 2691, 2692, 2693, 2694
 2695, 2696, 2697, 2698, 2699, 2700, 2851, 2852, 2853, 2854, 2855, 2856, 2857, 2858, 2859, 2860
 2861, 2862, 2863, 2864, 2865, 2866, 2867, 2868, 2869, 2870, 2871, 2872, 2873, 2874, 2875, 2876
 2877, 2878, 2879, 2880, 3031, 3032, 3033, 3034, 3035, 3036, 3037, 3038, 3039, 3040, 3041, 3042
 3043, 3044, 3045, 3046, 3047, 3048, 3049, 3050, 3051, 3052, 3053, 3054, 3055, 3056, 3057, 3058
 3059, 3060, 3211, 3212, 3213, 3214, 3215, 3216, 3217, 3218, 3219, 3220, 3221, 3222, 3223, 3224
 3225, 3226, 3227, 3228, 3229, 3230, 3231, 3232, 3233, 3234, 3235, 3236, 3237, 3238, 3239, 3240
 3391, 3392, 3393, 3394, 3395, 3396, 3397, 3398, 3399, 3400, 3401, 3402, 3403, 3404, 3405, 3406
 3407, 3408, 3409, 3410, 3411, 3412, 3413, 3414, 3415, 3416, 3417, 3418, 3419, 3420
*Elset, elset=Left-X-Symm, instance=Bottom-Plate-1, generate
   31,  4805,    31
*Elset, elset=Left-X-Symm, instance=Top-Plate-1, generate
   31,  4805,    31
*Nset, nset=QA_test_Top-Center, instance=Top-Plate-1
 5152,
*Nset, nset=QA_test_Bottom-Center, instance=Bottom-Plate-1
 32,
*Surface, type=NODE, name=Honeycomb-1_Bottom_CNS_, internal
Honeycomb-1.Bottom, 1.
*Surface, type=NODE, name=Honeycomb-1_Top_CNS_, internal
Honeycomb-1.Top, 1.
**======================================
**  Defining welds with tie constraint
**======================================
** Constraint: Bottom-Weld
*Tie, name=Bottom-Weld, adjust=no, tied nset=Honeycomb-1.Bottom
Honeycomb-1_Bottom_CNS_, Bottom-Plate-1.Top
** Constraint: Top-Weld
*Tie, name=Top-Weld, adjust=no, tied nset=Honeycomb-1.Top
Honeycomb-1_Top_CNS_, Top-Plate-1.Bottom
**======================================
*Node
9909099,           0.,           0.,         161.0
*Nset, nset=BLAST-SOURCE
9909099,
*End Assembly
** 
** MATERIALS
** 
** High-ductility Stainles Steel Alloy with 49% Fe, 24%Ni, 21%Cr, 6%Mo by 
** weight.
*Material, name=Steel_49Fe-24Ni-21Cr-6Mo_wt
**----------------------------------
** Material Prop. for AL-6XN Steel
**----------------------------------
*Density
 7.85e-09,
*Elastic
 161.0e+03, 0.35
*Plastic, hardening=Johnson Cook
 400.0, 1500.0, 0.40, 1.20, 1800.0, 293.0
*Rate Dependent, type=Johnson Cook
 0.045, 0.001
*Specific Heat
 452e+6
*Initial Condition, type=temperature
 Top-Plate-1.ALL, 273.0
 Bottom-Plate-1.ALL, 273.0
 Honeycomb-1.ALL, 273.0
**----------------------------------
** 
** BOUNDARY CONDITIONS
** 
** Name: Bottom-Y-Symm Type: Symmetry/Antisymmetry/Encastre
*Boundary
Bottom-Y-Symm, YSYMM
** Name: Left-X-Symm Type: Symmetry/Antisymmetry/Encastre
*Boundary
Left-X-Symm, XSYMM
** Name: Right-Clamped Type: Symmetry/Antisymmetry/Encastre
*Boundary
Right-Clamped, ENCASTRE
** Name: Top-Clamped Type: Symmetry/Antisymmetry/Encastre
*Boundary
Top-Clamped, ENCASTRE
**
** INCIDENT WAVE PROPERTY
**
*Incident Wave Interaction Property, Name=BLAST, Type=AIR BLAST
*Conwep Charge Property
1.0e-03, 1.0e+03
1.0e-03, 1.0, 1.0e+6
** --------- Defining General Contact ---------------
*Contact
*Contact inclusions, ALL EXTERIOR
** --------------------------------------------------
** 
** STEP: Blast-Dynamic-Explicit
** 
*Step, name=Blast-Dynamic-Explicit
Blast Loading (CONWEP) on Top of the Sandwich Structure
*Dynamic, Explicit
, 0.0015
*Bulk Viscosity
0.06, 1.2
*Incident Wave Interaction, Property=BLAST, Conwep
Top-Plate-1.Top, Blast-Source, , 0.0, 1.0
** 
** OUTPUT REQUESTS
** 
*Restart, write, number interval=1, time marks=NO
** 
** FIELD OUTPUT: F-Output-2
** 
***Output, field, time interval=1.0e-5
*Output, field, number inter=4
*Element Output, directions=YES
NFORC, P
*Element Output
TEMP
** 
** FIELD OUTPUT: F-Output-1
** 
*Output, field, variable=PRESELECT, number interval=4
***Output, field, variable=PRESELECT, time interval=1.0e-5
** 
** HISTORY OUTPUT: Bottom-Center-History
** 
*Output, history, time interval=2.5e-4
*Node Output, nset=QA_test_Bottom-Center
UT
** 
** HISTORY OUTPUT: Top-Center-History
** 
*Node Output, nset=QA_test_Top-Center
UT
**----------------------------------------
** 
** HISTORY OUTPUT: H-Output-1
** 
*Output, history, variable=PRESELECT
*End Step
